/*--------------------------------*- C++ -*----------------------------------*\
| =========                 |                                                 |
| \\      /  F ield         | OpenFOAM: The Open Source CFD Toolbox           |
|  \\    /   O peration     | Version:  5                                     |
|   \\  /    A nd           | Web:      www.OpenFOAM.org                      |
|    \\/     M anipulation  |                                                 |
\*---------------------------------------------------------------------------*/
FoamFile
{
    version     2.0;
    format      ascii;
    class       volScalarField;
    location    "0";
    object      epsilon;
}
// * * * * * * * * * * * * * * * * * * * * * * * * * * * * * * * * * * * * * //

dimensions      [0 0 -1 0 0 0 0];

internalField   uniform 9375;// U = 5 m/s ,T_u = 5% , Eddy viscosity ratio = 10

boundaryField
{

    Inlet
    {
        type            fixedValue;
        value           uniform 9375;
    }
    
    Outlet
    {
        type            inletOutlet;
        value           $internalField;
        inletValue      $internalField;
    }

    Wall
    {
        type            omegaWallFunction;
        value           $internalField;
    }

}


// ************************************************************************* //
